[TITLE]
large network provided by Robert Sitzenfrei (robert.sitzenfrei@uibk.ac.at)
cite as: Sitzenfrei et al (2020) Using Complex Network Analysis for Optimization of Water Distribution Networks. doi: 10.1029/2020WR027929
available diameters (mm): [3 4 6 8 10 12 14 16 18 20 22 24 28 32 36]*25.4      
costs (€/m): [8 11 16 23 32 50 60 90 130 170 300 550 700 1000 1200]

[JUNCTIONS]
;ID              	Elev        	Demand      	Pattern         
 66              	386.6713    	0.016923    	                	;
 68              	386.81      	0.0013079   	                	;
 71              	386.525     	0.066287    	                	;
 81              	387.0598    	0.049667    	                	;
 83              	387.26      	0.00090887  	                	;
 87              	386.8298    	0           	                	;
 90              	385.274     	0           	                	;
 91              	385.348     	0           	                	;
 92              	386.5063    	0           	                	;
 94              	385.8621    	0.021296    	                	;
 96              	386.129     	0           	                	;
 98              	388.9231    	0           	                	;
 100             	386.18      	0.0018622   	                	;
 101             	386.18      	0           	                	;
 102             	386.18      	0.017126    	                	;
 125             	386.74      	0           	                	;
 129             	387.26      	0           	                	;
 130             	386.29      	0           	                	;
 132             	386.16      	0           	                	;
 133             	386.81      	0           	                	;
 134             	416.7       	0           	                	;
 136             	392.011     	0           	                	;
 137             	388.55      	0           	                	;
 142             	388.22      	0           	                	;
 145             	376.8401    	0           	                	;
 146             	378.6877    	0           	                	;
 151             	384.4463    	0.014255    	                	;
 152             	375.9524    	0.07        	                	;
 153             	376.0556    	0           	                	;
 154             	376.0574    	0           	                	;
 155             	376.0609    	0.12544     	                	;
 156             	376.8362    	0.057018    	                	;
 157             	376.5936    	0           	                	;
 161             	376.5933    	0           	                	;
 162             	376.5935    	0           	                	;
 164             	376.6006    	0           	                	;
 167             	376.79      	0           	                	;
 168             	376.55      	0           	                	;
 170             	376.55      	0           	                	;
 172             	376.55      	0           	                	;
 173             	376.39      	0           	                	;
 174             	376.21      	0           	                	;
 175             	376.91      	0           	                	;
 176             	376.91      	0           	                	;
 177             	376.91      	0           	                	;
 178             	375.86      	0           	                	;
 179             	375.86      	0           	                	;
 181             	375.72      	0           	                	;
 182             	375.72      	0           	                	;
 183             	375.72      	0           	                	;
 186             	376.47      	0.011404    	                	;
 187             	377.1672    	0           	                	;
 190             	376.4479    	0           	                	;
 192             	376.4452    	0           	                	;
 193             	376.4459    	0           	                	;
 194             	376.45      	0           	                	;
 198             	376.4453    	0.034211    	                	;
 199             	376.05      	0.25088     	                	;
 200             	376.01      	0.44047     	                	;
 203             	376.9004    	0.19244     	                	;
 207             	375.96      	0           	                	;
 208             	375.96      	0.10263     	                	;
 209             	377.13      	0.57018     	                	;
 210             	376.2449    	0.22807     	                	;
 212             	377.23      	0.27369     	                	;
 213             	376.2649    	0           	                	;
 215             	376.07      	0           	                	;
 218             	374.35      	0.034211    	                	;
 226             	376.15      	0.06272     	                	;
 230             	376.14      	0.045615    	                	;
 231             	377.3       	0.079825    	                	;
 232             	376.34      	0.011404    	                	;
 234             	376.04      	0.11404     	                	;
 235             	376.34      	0.25088     	                	;
 236             	376.66      	0.14825     	                	;
 240             	374.722     	0.05702     	                	;
 244             	374.721     	0.09693     	                	;
 247             	375.6714    	0.3364      	                	;
 249             	377.05      	0.034211    	                	;
 250             	376.85      	0.022807    	                	;
 251             	375.6853    	0           	                	;
 254             	377.05      	0.039913    	                	;
 256             	377.05      	0.11404     	                	;
 257             	377.05      	0           	                	;
 258             	375.5792    	0.67282     	                	;
 259             	376.95      	0.034211    	                	;
 260             	376.9489    	0.68992     	                	;
 261             	376.9501    	0           	                	;
 262             	377.18      	0.67281     	                	;
 263             	377.18      	0.27939     	                	;
 264             	376.19      	0.28082     	                	;
 266             	377.04      	0.068422    	                	;
 269             	377.2       	0.22807     	                	;
 271             	375.88      	1.2209      	                	;
 274             	375.95      	0.35636     	                	;
 277             	377.5994    	1.0064      	                	;
 279             	376.18      	0.784       	                	;
 282             	376.7767    	0           	                	;
 283             	376.23      	0.28795     	                	;
 285             	376.43      	0.43904     	                	;
 290             	376.2748    	0.16393     	                	;
 294             	376.5067    	0.15965     	                	;
 295             	375.33      	0.5267      	                	;
 297             	377         	1.4368      	                	;
 299             	377         	0           	                	;
 301             	375.9166    	0.12544     	                	;
 302             	377.41      	2.734       	                	;
 304             	377.4023    	0           	                	;
 305             	377.21      	0.47895     	                	;
 308             	374.6181    	0           	                	;
 309             	375.299     	0.21667     	                	;
 310             	374.8734    	0           	                	;
 312             	376.9262    	0           	                	;
 315             	375.5556    	39.82       	                	;
 316             	375.5303    	0           	                	;
 318             	375.4853    	0           	                	;
 320             	377.45      	1.1974      	                	;
 322             	376.76      	0.38202     	                	;
 324             	375.33      	1.4825      	                	;
 328             	376.71      	0.34211     	                	;
 330             	376.6       	1.052       	                	;
 332             	375.5811    	1.4169      	                	;
 334             	376.44      	0.89518     	                	;
 336             	376.37      	1.5737      	                	;
 340             	375.5969    	0           	                	;
 341             	375.5955    	0           	                	;
 342             	375.5943    	0           	                	;
 347             	375.8298    	0.55306     	                	;
 350             	375.89      	3.9913      	                	;
 352             	377.74      	1.6535      	                	;
 353             	375.3588    	0           	                	;
 354             	375.5006    	0.12544     	                	;
 356             	377.53      	2.121       	                	;
 358             	376.77      	0           	                	;
 360             	377.46      	2.1039      	                	;
 361             	375.639     	0           	                	;
 362             	375.639     	0           	                	;
 363             	375.6391    	0           	                	;
 366             	375.6392    	0           	                	;
 367             	375.6393    	0           	                	;
 370             	375.6387    	1.853       	                	;
 372             	376.23      	1.5907      	                	;
 374             	376.23      	1.2886      	                	;
 375             	376.98      	5.2085      	                	;
 377             	376.44      	2.7112      	                	;
 380             	376.0693    	0           	                	;
 381             	376.0824    	0           	                	;
 382             	376.12      	0           	                	;
 383             	376.49      	1.568       	                	;
 385             	376.9684    	0.21382     	                	;
 387             	376.9567    	0.074124    	                	;
 392             	376.35      	3.233       	                	;
 393             	376.23      	0.03421     	                	;
 398             	376         	2.5088      	                	;
 399             	375.97      	2.0755      	                	;
 400             	376.7       	0.33641     	                	;
 402             	377.06      	0.18246     	                	;
 404             	376.96      	0           	                	;
 405             	376.96      	1.3057      	                	;
 406             	376.6       	0.011404    	                	;
 408             	376.24      	0           	                	;
 411             	376.24      	0           	                	;
 412             	376.24      	2.4404      	                	;
 415             	377.3023    	1.3057      	                	;
 418             	378.496     	0.017105    	                	;
 422             	376.48      	0.011404    	                	;
 425             	376.7053    	0.25658     	                	;
 426             	376.6941    	0           	                	;
 427             	376.6867    	0           	                	;
 428             	376.6799    	0           	                	;
 429             	376.6791    	0           	                	;
 432             	376.53      	0.62007     	                	;
 434             	376.63      	0.55308     	                	;
 436             	376.5099    	0           	                	;
 437             	376.5014    	0.9465      	                	;
 440             	377.13      	0.051317    	                	;
 442             	376.79      	0.35351     	                	;
 443             	377.05      	0.18816     	                	;
 445             	376.53      	0.039913    	                	;
 448             	376.32      	0.022807    	                	;
 449             	376.84      	0.51316     	                	;
 450             	376.5       	0.017105    	                	;
 451             	376.2       	1.1119      	                	;
 452             	376.27      	0.17391     	                	;
 453             	376.65      	0.18246     	                	;
 456             	376.207     	0.0085527   	                	;
 457             	375.5093    	0           	                	;
 458             	375.2452    	0           	                	;
 459             	374.8       	0.005702    	                	;
 464             	376.168     	0.064146    	                	;
 465             	376.158     	0           	                	;
 466             	376.41      	0.30219     	                	;
 467             	376.8629    	0           	                	;
 468             	376.8611    	0.57588     	                	;
 469             	374.798     	0           	                	;
 470             	376.04      	0.05702     	                	;
 473             	376.181     	0           	                	;
 474             	376.1744    	0           	                	;
 479             	376.2816    	1.2487      	                	;
 481             	376.148     	0           	                	;
 482             	376.8486    	0.17675     	                	;
 484             	374.647     	0           	                	;
 487             	376.259     	0.005702    	                	;
 489             	376.333     	0.079825    	                	;
 490             	376.75      	0.13114     	                	;
 492             	376.48      	0.46755     	                	;
 494             	376.5178    	0.17106     	                	;
 496             	376.5142    	0           	                	;
 497             	376.83      	0.14825     	                	;
 498             	376.83      	0           	                	;
 499             	376.73      	0           	                	;
 500             	375.99      	0           	                	;
 501             	376.83      	0.30219     	                	;
 502             	376.92      	0           	                	;
 503             	376.78      	0           	                	;
 507             	375.02      	18.3298     	                	;
 509             	375.78      	0           	                	;
 512             	377         	0.022807    	                	;
 513             	376.04      	0           	                	;
 514             	376.03      	0           	                	;
 516             	377.79      	0.88946     	                	;
 517             	376.33      	0           	                	;
 518             	377.41      	0.15965     	                	;
 519             	375.78      	0           	                	;
 520             	378.016     	0.21667     	                	;
 521             	378.0164    	0           	                	;
 524             	378.77      	0           	                	;
 525             	408.65      	0           	                	;
 527             	408.138     	0.017105    	                	;
 528             	379.8315    	0           	                	;
 529             	397.532     	0           	                	;
 530             	406.39      	0.6272      	                	;
 531             	395.694     	0           	                	;
 532             	403.949     	0           	                	;
 533             	406.105     	0           	                	;
 535             	407.057     	0           	                	;
 536             	406.576     	0           	                	;
 537             	406.86      	0           	                	;
 538             	396.604     	0.034211    	                	;
 539             	397.766     	0.19386     	                	;
 541             	381.438     	0.022807    	                	;
 542             	394.455     	0.30789     	                	;
 544             	383.121     	0.057018    	                	;
 545             	391.042     	0.27369     	                	;
 546             	383.049     	0.21667     	                	;
 548             	383.617     	0.11831     	                	;
 552             	439.02      	0           	                	;
 553             	435.07      	0.10833     	                	;
 555             	427.258     	0.028509    	                	;
 558             	413.68      	0.2295      	                	;
 559             	440.31      	0           	                	;
 562             	422.94      	0           	                	;
 566             	432.1468    	0.06272     	                	;
 567             	413.9256    	0.039913    	                	;
 570             	423.9612    	0.034211    	                	;
 572             	426.6196    	0           	                	;
 575             	422.4411    	0.057018    	                	;
 576             	426.5977    	0.022807    	                	;
 577             	422.2722    	0.27369     	                	;
 578             	423.859     	0.12259     	                	;
 579             	407.61      	0           	                	;
 580             	420.11      	0.091229    	                	;
 584             	414.92      	0.29649     	                	;
 586             	414.9       	0.23377     	                	;
 587             	414.42      	0           	                	;
 590             	415.52      	0.54738     	                	;
 594             	410.99      	0           	                	;
 595             	410.99      	0           	                	;
 596             	429.0459    	0.042764    	                	;
 597             	410.99      	0           	                	;
 598             	429.43      	0.057018    	                	;
 603             	415.16      	0.039912    	                	;
 604             	415.33      	0.068422    	                	;
 605             	415.3       	0           	                	;
 606             	418.4626    	0.051315    	                	;
 607             	418.4432    	0           	                	;
 608             	415.18      	0.73556     	                	;
 610             	412.26      	0.045615    	                	;
 612             	418.3       	0.051315    	                	;
 614             	415.9247    	1.3628      	                	;
 616             	416.37      	0           	                	;
 617             	416.37      	0           	                	;
 618             	416.8721    	0.45615     	                	;
 619             	413.09      	0           	                	;
 620             	413.1048    	0.017105    	                	;
 621             	413.15      	0           	                	;
 622             	413.14      	0           	                	;
 623             	414.142     	0.24518     	                	;
 626             	414.08      	0.31645     	                	;
 628             	407.76      	0.13115     	                	;
 629             	410.54      	0           	                	;
 631             	404.01      	0.18246     	                	;
 634             	409.67      	0.55878     	                	;
 635             	408.33      	0           	                	;
 636             	402.2451    	0.022807    	                	;
 637             	402.2259    	0           	                	;
 638             	405.1181    	0.39058     	                	;
 640             	403.1235    	0.14254     	                	;
 641             	402.91      	0           	                	;
 643             	402.91      	0.12544     	                	;
 647             	391.4503    	0           	                	;
 649             	391.1136    	0           	                	;
 651             	388.43      	0.045615    	                	;
 652             	379.86      	0.29649     	                	;
 654             	380.2223    	0.068421    	                	;
 656             	384.875     	0.05702     	                	;
 657             	377.943     	0.079825    	                	;
 658             	375.071     	0.15965     	                	;
 659             	372.021     	0.10263     	                	;
 660             	377.277     	0.43334     	                	;
 661             	377.267     	0.011404    	                	;
 662             	380.24      	0.022807    	                	;
 668             	377.497     	0           	                	;
 669             	377.174     	0           	                	;
 673             	375.986     	0.06272     	                	;
 674             	380.54      	0.98071     	                	;
 679             	376.799     	0.011404    	                	;
 682             	380.25      	0           	                	;
 685             	380.25      	0           	                	;
 686             	377.679     	0           	                	;
 687             	377.427     	0           	                	;
 690             	379.3       	0.15965     	                	;
 691             	379.3       	0           	                	;
 692             	376.87      	0           	                	;
 694             	375.278     	0.16535     	                	;
 696             	376.914     	0           	                	;
 698             	377.2144    	0.022807    	                	;
 699             	376.884     	0           	                	;
 700             	376.931     	0.011404    	                	;
 707             	379.98      	0.84957     	                	;
 710             	376.779     	0.022807    	                	;
 713             	378.9033    	0.14825     	                	;
 717             	374.83      	0.10264     	                	;
 718             	376.166     	0           	                	;
 719             	374.984     	0           	                	;
 720             	374.832     	0           	                	;
 722             	374.82      	0           	                	;
 725             	378.4066    	0.11974     	                	;
 727             	374.889     	0.045614    	                	;
 729             	377.8119    	0           	                	;
 731             	377.094     	0.034211    	                	;
 732             	378.7475    	0           	                	;
 733             	378.7606    	0           	                	;
 735             	377.91      	0           	                	;
 737             	378.8403    	0           	                	;
 739             	377.03      	0           	                	;
 740             	376.878     	0.028509    	                	;
 742             	378.57      	1.2829      	                	;
 746             	378.57      	0.12544     	                	;
 747             	378.727     	0           	                	;
 749             	376.92      	0.10263     	                	;
 750             	376.87      	0.028509    	                	;
 751             	380.16      	0           	                	;
 752             	380.16      	0           	                	;
 753             	380.16      	0           	                	;
 755             	380.16      	0.011404    	                	;
 757             	379.2       	0.13684     	                	;
 758             	379.2       	0.091229    	                	;
 761             	378.3686    	0           	                	;
 762             	377.0799    	0           	                	;
 763             	377.5125    	0           	                	;
 765             	376.8714    	0           	                	;
 767             	384.0284    	0           	                	;
 769             	392.26      	0.034211    	                	;
 770             	376.8256    	0.091229    	                	;
 771             	378.575     	0.022807    	                	;
 774             	376.709     	0           	                	;
 775             	376.556     	0.022807    	                	;
 778             	375.13      	0.022807    	                	;
 779             	375.13      	0           	                	;
 781             	381.2637    	0           	                	;
 782             	376.374     	0           	                	;
 785             	381.2698    	0.011404    	                	;
 790             	376.074     	0.27369     	                	;
 792             	381.27      	0           	                	;
 796             	378.26      	0           	                	;
 797             	377.34      	0           	                	;
 798             	377.34      	0.10834     	                	;
 799             	378.45      	0.13684     	                	;
 800             	379.94      	0.011404    	                	;
 802             	377.61      	0.40483     	                	;
 803             	378.56      	0           	                	;
 805             	378.56      	0.037062    	                	;
 807             	380.24      	0.90942     	                	;
 808             	380.15      	0           	                	;
 810             	376.858     	0.028509    	                	;
 812             	376.419     	0.14255     	                	;
 814             	375.854     	0           	                	;
 815             	375.875     	0           	                	;
 819             	379         	3.022       	                	;
 821             	378.38      	0.019956    	                	;
 823             	378.38      	0           	                	;
 825             	378.38      	0           	                	;
 826             	377.64      	0.49321     	                	;
 828             	378.18      	0           	                	;
 829             	378.4       	0           	                	;
 832             	376.216     	0.082676    	                	;
 834             	380.79      	0.26228     	                	;
 835             	380.79      	0.96933     	                	;
 839             	378.2086    	0           	                	;
 841             	377.4814    	0           	                	;
 843             	375.66      	0           	                	;
 845             	376.2707    	0           	                	;
 846             	378.15      	0           	                	;
 847             	376.8719    	0           	                	;
 849             	378.96      	0.75264     	                	;
 850             	378.9841    	0.84387     	                	;
 851             	378.99      	2.3491      	                	;
 853             	378.99      	2.0413      	                	;
 854             	379.39      	0.93225     	                	;
 857             	379.14      	2.1011      	                	;
 858             	379.14      	0           	                	;
 861             	377.55      	0           	                	;
 862             	377.55      	0           	                	;
 863             	379.24      	0           	                	;
 865             	379.24      	0           	                	;
 866             	379.24      	0           	                	;
 867             	379.24      	0           	                	;
 869             	377.4244    	0           	                	;
 871             	377.1077    	0           	                	;
 872             	378.57      	3.7803      	                	;
 873             	379.21      	0           	                	;
 874             	379.14      	1.7333      	                	;
 876             	378.3887    	0.3022      	                	;
 878             	378.3221    	1.6364      	                	;
 880             	379.16      	0.37917     	                	;
 881             	380.72      	0.17105     	                	;
 882             	380.72      	0           	                	;
 886             	379.19      	1.6264      	                	;
 888             	380.04      	0           	                	;
 889             	380.04      	0           	                	;
 892             	380.9112    	0           	                	;
 894             	378.2415    	0           	                	;
 895             	380.52      	0.64146     	                	;
 896             	380.52      	0.091229    	                	;
 897             	377.9       	0           	                	;
 898             	377.9263    	0.011404    	                	;
 901             	379.14      	0.50176     	                	;
 903             	379.7546    	0.68422     	                	;
 906             	380.22      	0.54167     	                	;
 907             	380.28      	2.4019      	                	;
 908             	379.87      	0.11974     	                	;
 909             	379.87      	0.17105     	                	;
 911             	378.9       	0.60439     	                	;
 915             	378.53      	0           	                	;
 917             	378.533     	0.16107     	                	;
 918             	378.9268    	1.3727      	                	;
 919             	379.6       	0.26798     	                	;
 922             	379.42      	0           	                	;
 925             	378.28      	0.74125     	                	;
 927             	378.28      	0           	                	;
 930             	379.84      	0.15395     	                	;
 932             	378.8874    	1.1461      	                	;
 933             	378.18      	0.074125    	                	;
 934             	379.27      	0           	                	;
 935             	379.27      	1.8531      	                	;
 936             	380.7764    	1.0662      	                	;
 937             	381.49      	0           	                	;
 938             	377.64      	0.81251     	                	;
 940             	378.5       	0.23948     	                	;
 941             	378.84      	0.52457     	                	;