[TITLE]


[JUNCTIONS]
;ID              	Elev        	Demand      	Pattern         
 1             	111.9767081 	0           	                	;				
 2             	112.3345493 	0           	                	;				
 3              	121.1107905 	0           	                	;				
 4              	114.4140771 	0           	                	;				
 5              	118.5751624 	0           	                	;				
 6              	122.5349305 	0.15854896  	                	;				
 7             	121.1519426 	0.507356672 	                	;				
 8             	113.6279958 	2.885591071 	                	;				
 9             	114.7471658 	2.346524607 	                	;				
 10             	121.1704421 	2.600202943 	                	;				
 11             	124.2994124 	1.078132927 	                	;				
 12             	111.2380067 	1.395230847 	                	;				
 13             	111.8527703 	0.761035008 	                	;				
 14             	124.1455101 	0.380517504 	                	;				
 15             	107.6377755 	0.63419584  	                	;				
 16             	119.2705056 	1.078132927 	                	;				
 17              	115.930969  	0.761035008 	                	;				
 18             	120.0295086 	1.078132927 	                	;				
 19             	109.9031425 	1.902587519 	                	;				
 20             	107.371149  	0.63419584  	                	;				
 21             	122.7995796 	2.441653983 	                	;				
 22             	122.5033214 	0.31709792  	                	;				
 23             	121.8901361 	0.887874176 	                	;				
 24             	109.1904968 	0.761035008 	                	;				
 25             	114.1359827 	1.585489599 	                	;				
 26             	115.3484088 	0.7927448   	                	;				
 27             	117.8208288 	2.029426687 	                	;				
 28              	109.326126  	1.204972095 	                	;				
 29             	106.013688  	1.395230847 	                	;				
 30             	113.9824402 	0.507356672 	                	;				
 31             	123.227886  	0.856164384 	                	;				
 32             	124.3623443 	0.031709792 	                	;				
 33             	121.9713736 	1.870877727 	                	;				
 34             	118.6451216 	0.887874176 	                	;				
 35             	116.411171  	1.490360223 	                	;				
 36             	117.8177135 	1.363521055 	                	;				
 37             	116.9711318 	0.539066464 	                	;				
 38             	120.9961349 	0.31709792  	                	;				
 39              	108.178794  	0.887874176 	                	;				
 40             	115.729459  	0.31709792  	                	;				
 41             	119.216174  	0.380517504 	                	;				
 42             	115.8560663 	2.156265855 	                	;				
 43             	107.0913833 	0.031709792 	                	;				
 44             	119.8894593 	1.046423135 	                	;				
 45             	105.3640216 	0.528848864 	                	;				
 46             	104.4134845 	3.04414003  	                	;				
 47             	109.0737035 	0.095129376 	                	;				
 48             	113.5596461 	1.046423135 	                	;				
 49              	110.3455312 	2.505073567 	                	;				
 50             	112.5656207 	1.268391679 	                	;				
 51             	121.9173145 	0.031709792 	                	;				
 52             	117.1115797 	0.602486048 	                	;				
 53             	113.860072  	0.539066464 	                	;				
 54             	113.8601657 	0.31709792  	                	;				
 55             	118.1083084 	0.31709792  	                	;				
 56              	122.7730631 	0.7927448   	                	;				
 57              	122.4547303 	0.856164384 	                	;				
 58              	118.2902303 	4.724759006 	                	;				
 59              	111.1905826 	0.63419584  	                	;				
 60         	122.2936847 	0.348807712 	                	;				
 61            	123.1425047 	0           	                	;				
 62           	118.9629871 	0           	                	;				
 63           	118.9639837 	0           	                	;				
 64           	121.1145262 	0           	                	;				
 65           	121.9481567 	0           	                	;				
 66           	123.3607235 	0           	                	;				
 67           	123.5527693 	0           	                	;				
 68           	124.0273588 	0           	                	;				
 69           	116.669828  	0           	                	;				
 70           	114.3573757 	0           	                	;				
 71           	114.3248357 	0           	                	;				
 72            	105.3688741 	0           	                	;				
 73           	114.1632823 	0           	                	;				
 74           	115.0117055 	0           	                	;				
 75           	115.3117819 	0           	                	;				
 76           	115.8258544 	0           	                	;				
 77           	115.8478066 	0           	                	;				
 78           	115.8523059 	0           	                	;				
 79           	116.14325   	0           	                	;				
 80           	108.7048506 	0           	                	;				
 81           	107.4157059 	0           	                	;				
 82           	111.6826597 	0           	                	;				
 83            	114.4052897 	0           	                	;				
 84           	108.9791985 	0           	                	;				
 85           	106.8460188 	0           	                	;				
 86           	123.6782759 	0           	                	;				
 87            	115.1316722 	0           	                	;				
 88            	114.7865544 	0           	                	;				
 89            	116.8854141 	0           	                	;				
 90            	116.9424341 	0           	                	;				
 91            	117.7715434 	0           	                	;				
 92             	116.309939  	0           	                	;				
 93            	118.836681  	0           	                	;				
 94            	119.3056465 	0           	                	;				
 95            	121.0508823 	0           	                	;				
 96            	121.4576682 	0           	                	;				
 97            	122.3023414 	0           	                	;				
 98            	121.781833  	0           	                	;				
 99            	121.644389  	0           	                	;				
 100             	115.918799  	0           	                	;				
 101            	120.3502409 	0           	                	;				
 102            	116.5106438 	0           	                	;				
 103            	112.5926573 	0.285388128 	                	;				
 104            	117.802328  	0           	                	;				
 105            	109.941775  	0           	                	;				
 106            	105.5039951 	0.073637184 	                	;				
 107             	114.4034715 	0           	                	;				
 108            	121.3607886 	0.063419584 	                	;				
 109            	123.4863514 	0           	                	;				
 110            	122.0412726 	0           	                	;				
 111             	114.7762376 	0           	                	;				
 112            	115.5425261 	0           	                	;				
 113            	114.1374729 	0           	                	;				
 114            	114.3501377 	0           	                	;				
 115            	116.991759  	0           	                	;				
 116            	116.5927417 	0           	                	;				
 117            	118.632583  	0           	                	;				
 118            	118.9236905 	0           	                	;				
 119            	118.1645365 	0           	                	;				
 120            	118.5284775 	0           	                	;				
 121            	118.4920997 	0           	                	;				
 122             	105.6646751 	0           	                	;				
 123            	118.4079664 	0           	                	;				
 124            	119.1862016 	0           	                	;				
 125            	120.4720849 	0           	                	;				
 126            	119.8169237 	0           	                	;				
 127            	120.2867871 	0           	                	;				
 128            	120.8396402 	0           	                	;				
 129            	120.4872832 	0           	                	;				
 130            	119.1415723 	0           	                	;				
 131            	118.1459011 	0           	                	;				
 132            	117.808331  	0           	                	;				
 133            	117.3840257 	0           	                	;				
 134            	119.7250267 	0           	                	;				
 135            	117.4352665 	0           	                	;				
 136            	117.3592229 	0           	                	;				
 137            	117.3383156 	0           	                	;				
 138            	121.2732868 	0           	                	;				
 139             	124.1174978 	0           	                	;				
 140            	121.1735674 	0           	                	;				
 141            	123.0250409 	0           	                	;				
 142            	122.9508127 	0           	                	;				
 143            	115.5178275 	0           	                	;				
 144            	115.8710039 	0           	                	;				
 145            	116.5980191 	0           	                	;				
 146            	117.8580219 	0           	                	;				
 147            	117.0194197 	0           	                	;				
 148            	120.5777848 	0           	                	;				
 149           	108.942604  	0.232538475 	                	;				
 150           	106.7812307 	0.232538475 	                	;				
 151           	113.6940268 	0.232538475 	                	;				
 152           	122.2859997 	0.232538475 	                	;				
 153           	123.5838616 	0.232538475 	                	;				
 154           	123.0433427 	0.232538475 	                	;				
 155             	116.3754985 	1.014713343 	                	;				
 156          	105.1918992 	0           	                	;				
 157          	105.5344039 	0           	                	;				
 158          	105.5857446 	0           	                	;				
 159          	105.7020982 	0           	                	;				
 160          	105.8208498 	0           	                	;				
 161          	105.8201542 	0           	                	;				
 162          	106.0221428 	0           	                	;				
 163          	106.1468972 	0           	                	;				
 164          	106.1364478 	0           	                	;				
 165          	106.1615623 	0           	                	;				
 166          	106.4812645 	0           	                	;				
 167          	106.5040943 	0           	                	;				
 168          	106.6051958 	0           	                	;				
 169          	106.6844762 	0           	                	;				
 170          	106.701846  	0           	                	;				
 171          	106.8917517 	0           	                	;				
 172          	107.0126924 	0           	                	;				
 173          	107.1465539 	0           	                	;				
 174          	107.4435571 	0           	                	;				
 175          	107.6126387 	0           	                	;				
 176          	107.6232527 	0           	                	;				
 177          	107.9286094 	0           	                	;				
 178          	108.0349459 	0           	                	;				
 179          	108.0545752 	0           	                	;				
 180          	108.105949  	0           	                	;				
 181          	108.3123673 	0           	                	;				
 182          	108.3480291 	0           	                	;				
 183          	108.508867  	0           	                	;				
 184          	108.5439986 	0           	                	;				
 185          	108.5953113 	0           	                	;				
 186          	108.6372785 	0           	                	;				
 187          	108.7908953 	0           	                	;				
 188          	108.9245978 	0           	                	;				
 189          	109.0201651 	0           	                	;				
 190          	109.0476137 	0           	                	;				
 191          	109.218618  	0           	                	;				
 192          	109.3060311 	0           	                	;				
 193          	109.2611445 	0           	                	;				
 194          	109.4453921 	0           	                	;				
 195          	109.4301918 	0           	                	;				
 196          	109.5310889 	0           	                	;				
 197          	109.4808361 	0           	                	;				
 198          	109.5441553 	0           	                	;				
 199          	109.5441694 	0           	                	;				
 200          	109.7000311 	0           	                	;				
 201          	109.7695516 	0           	                	;				
 202          	109.8539366 	0           	                	;				
 203          	109.8941778 	0           	                	;				
 204          	109.9429904 	0           	                	;				
 205          	110.1734878 	0           	                	;				
 206          	110.1894088 	0           	                	;				
 207          	110.5552003 	0           	                	;				
 208          	110.6359756 	0           	                	;				
 209          	110.9590069 	0           	                	;				
 210          	110.9957374 	0           	                	;				
 211          	111.0948224 	0           	                	;				
 212          	111.2067327 	0           	                	;				
 213          	111.2811036 	0           	                	;				
 214          	111.459238  	0           	                	;				
 215          	111.5585976 	0           	                	;				
 216          	111.5623856 	0           	                	;				
 217          	111.6125133 	0           	                	;				
 218          	111.697715  	0           	                	;				
 219          	111.7717012 	0           	                	;				
 220          	111.8822111 	0           	                	;				
 221          	112.0453983 	0           	                	;				
 222          	112.1444492 	0           	                	;				
 223          	112.2121085 	0           	                	;				
 224          	112.2580652 	0           	                	;				
 225          	112.3018362 	0           	                	;				
 226          	112.2474557 	0           	                	;				
 227          	112.2482239 	0           	                	;				
 228          	112.2911843 	0           	                	;				
 229          	112.2751104 	0           	                	;				
 230          	112.3202354 	0           	                	;				
 231          	112.3374684 	0           	                	;				
 232          	112.4006321 	0           	                	;				
 233          	112.4339095 	0           	                	;				
 234          	112.4610227 	0           	                	;				
 235          	112.5040468 	0           	                	;				
 236          	112.6561859 	0           	                	;				
 237          	112.9394522 	0           	                	;				
 238          	112.9607122 	0           	                	;				
 239          	112.9665858 	0           	                	;				
 240          	113.0060225 	0           	                	;				
 241          	113.0712384 	0           	                	;				
 242          	113.1053501 	0           	                	;				
 243          	113.1534326 	0           	                	;				
 244          	113.1803427 	0           	                	;				
 245          	113.2651122 	0           	                	;				
 246          	113.311166  	0           	                	;				
 247          	113.5971228 	0           	                	;				
 248          	113.6382612 	0           	                	;				
 249          	113.7033296 	0           	                	;				
 250          	113.7358794 	0           	                	;				
 251          	113.7431878 	0           	                	;				
 252          	113.7889316 	0           	                	;				
 253          	113.7891471 	0           	                	;				
 254          	113.9256101 	0           	                	;				
 255          	113.9491378 	0           	                	;				
 256          	114.1589679 	0           	                	;				
 257          	114.2191397 	0           	                	;				
 258          	114.3281772 	0           	                	;				
 259          	114.4922616 	0           	                	;				
 260          	114.5102751 	0           	                	;				
 261          	114.7922231 	0           	                	;				
 262          	114.9394161 	0           	                	;				
 263          	114.9523499 	0           	                	;				
 264          	114.9589002 	0           	                	;				
 265          	114.9790595 	0           	                	;				
 266          	115.0424942 	0           	                	;				
 267          	114.9923391 	0           	                	;				
 268          	115.0697405 	0           	                	;				
 269          	115.2066122 	0           	                	;				
 270          	115.2172699 	0           	                	;				
 271          	115.416751  	0           	                	;				
 272          	115.8260827 	0           	                	;				
 273          	115.902237  	0           	                	;				
 274          	115.9147198 	0           	                	;				
 275          	116.1737963 	0           	                	;				
 276          	116.1462892 	0           	                	;				
 277          	116.170729  	0           	                	;				
 278          	116.4314264 	0           	                	;				
 279          	116.4602134 	0           	                	;				
 280          	116.5141936 	0           	                	;				
 281          	116.5543738 	0           	                	;				
 282          	116.618869  	0           	                	;				
 283          	116.6149978 	0           	                	;				
 284          	116.6723771 	0           	                	;				
 285          	117.1956289 	0           	                	;				
 286          	117.2711286 	0           	                	;				
 287          	117.3173884 	0           	                	;				
 288          	117.3898076 	0           	                	;				
 289          	117.4348756 	0           	                	;				
 290          	117.7268735 	0           	                	;				
 291          	117.6888398 	0           	                	;				
 292          	117.8830677 	0           	                	;				
 293          	118.0324415 	0           	                	;				
 294          	118.3699719 	0           	                	;				
 295          	118.4778382 	0           	                	;				
 296          	118.7857198 	0           	                	;				
 297          	118.8193455 	0           	                	;				
 298          	118.89115   	0           	                	;				
 299          	118.9240364 	0           	                	;				
 300          	119.1196595 	0           	                	;				
 301          	119.2059277 	0           	                	;				
 302          	119.367945  	0           	                	;				
 303          	119.4405643 	0           	                	;				
 304          	119.4642227 	0           	                	;				
 305          	119.5132357 	0           	                	;				
 306          	119.5817586 	0           	                	;				
 307          	119.7601742 	0           	                	;				
 308          	119.7656943 	0           	                	;				
 309          	119.800211  	0           	                	;				
 310          	119.9160326 	0           	                	;				
 311          	119.9184093 	0           	                	;				
 312          	119.9112414 	0           	                	;				
 313          	119.9114853 	0           	                	;				
 314          	120.2935157 	0           	                	;				
 315          	120.5650339 	0           	                	;				
 316          	120.6530668 	0           	                	;				
 317          	120.6892151 	0           	                	;				
 318          	120.7126273 	0           	                	;				
 319          	120.7378352 	0           	                	;				
 320          	120.8757599 	0           	                	;				
 321          	120.9250069 	0           	                	;				
 322          	121.0023657 	0           	                	;				
 323          	120.9667215 	0           	                	;				
 324          	121.1517606 	0           	                	;				
 325          	121.1616513 	0           	                	;				
 326          	121.2040479 	0           	                	;				
 327          	121.308577  	0           	                	;				
 328          	121.3156022 	0           	                	;				
 329          	121.3471951 	0           	                	;				
 330          	121.3840179 	0           	                	;				
 331          	121.4333841 	0           	                	;				
 332          	121.5496229 	0           	                	;				
 333          	121.5806807 	0           	                	;				
 334          	121.5129211 	0           	                	;				
 335          	121.6033439 	0           	                	;				
 336          	121.6444784 	0           	                	;				
 337          	121.7067189 	0           	                	;				
 338          	121.7658797 	0           	                	;				
 339          	121.8088702 	0           	                	;				
 340          	121.9439845 	0           	                	;				
 341          	121.9674185 	0           	                	;				
 342          	121.9342748 	0           	                	;				
 343          	121.983182  	0           	                	;				
 344          	122.0843115 	0           	                	;				
 345          	122.1900197 	0           	                	;				
 346          	122.0888367 	0           	                	;				
 347          	122.0968994 	0           	                	;				
 348          	122.2481665 	0           	                	;				
 349          	122.1723537 	0           	                	;				
 350          	122.2524539 	0           	                	;				
 351          	122.2936847 	0           	                	;				
 352          	122.3243355 	0           	                	;				
 353          	122.2541894 	0           	                	;				
 354          	122.3555171 	0           	                	;				
 355          	122.469187  	0           	                	;				
 356          	122.6242869 	0           	                	;				
 357          	122.6450771 	0           	                	;				
 358          	122.6676984 	0           	                	;				
 359          	122.7068471 	0           	                	;				
 360          	122.7980655 	0           	                	;				
 361          	122.9370791 	0           	                	;				
 362          	122.936979  	0           	                	;				
 363          	123.0483189 	0           	                	;				
 364          	122.9924597 	0           	                	;				
 365          	123.1460251 	0           	                	;				
 366          	123.1845821 	0           	                	;				
 367          	123.1905671 	0           	                	;				
 368          	123.2271092 	0           	                	;				
 369          	123.2759956 	0           	                	;				
 370          	123.2973626 	0           	                	;				
 371          	123.3283097 	0           	                	;				
 372           	104.844953  	0           	                	;				
 373          	123.3812269 	0           	                	;				
 374          	123.484822  	0           	                	;				
 375          	123.5553142 	0           	                	;				
 376          	123.8797135 	0           	                	;				
 377          	124.1329879 	0           	                	;				
 378          	124.3548394 	0           	                	;				
 379             	112.4339095 	1.744038559 	                	;				

[RESERVOIRS]
;ID              	Head        	Pattern         
 380             	169.56      	                	;					
 381             	169.4       	                	;					

[TANKS]
;ID              	Elevation   	InitLevel   	MinLevel    	MaxLevel    	Diameter    	MinVol      	VolCurve

[PIPES]
;ID              	Node1           	Node2           	Length      	Diameter    	Roughness   	MinorLoss   	Status
 WW3594_WW3592   	227          	226          	3.153219758 	450         	0.012       	0           	Open  	;
 WW5326_WW5324   	313          	312          	6.901723779 	450         	0.012       	0           	Open  	;
 WW5956_WW5945   	369          	366          	377.9491524 	450         	0.012       	0           	Open  	;
 WW2712_WW2702   	199          	196          	415.9255293 	450         	0.012       	0           	Open  	;
 WW5951_WW5968   	368          	371          	418.4695656 	450         	0.012       	0           	Open  	;
 WW4213_WW4167   	268          	262          	537.0739695 	450         	0.012       	0           	Open  	;
 WW2103_WW2055   	170          	169          	538.8714716 	450         	0.012       	0           	Open  	;
 WW5583_WW5620   	325          	328          	638.2421    	450         	0.012       	0           	Open  	;
 WW5312_WW5278   	310          	307          	862.8703964 	450         	0.012       	0           	Open  	;
 WW3671_WW3594   	234          	227          	875.1639825 	450         	0.012       	0           	Open  	;
 WW5736_WW5782   	338          	341          	903.9139406 	450         	0.012       	0           	Open  	;
 WW2906_WW2838   	206          	204          	1016.154092 	450         	0.012       	0           	Open  	;
 WW5817_WW5762   	346          	339          	1153.108197 	450         	0.012       	0           	Open  	;
 WW4042_WW4114   	257          	259          	1162.309543 	450         	0.012       	0           	Open  	;
 WW5776_WW5717   	340          	336          	1233.966121 	450         	0.012       	0           	Open  	;
 WW3904_WW3913   	249          	251          	1242.774299 	450         	0.012       	0           	Open  	;
 WW3913_WW3904   	251          	249          	1242.774553 	450         	0.012       	0           	Open  	;
 WW3629_WW3693   	231          	236          	1310.769976 	450         	0.012       	0           	Open  	;
 WW4860_WW4922   	293          	294          	1392.123484 	450         	0.012       	0           	Open  	;
 WW3842_WW3843   	245          	246          	1492.403164 	450         	0.012       	0           	Open  	;
 WW2634_WW2695   	190          	195          	1574.186801 	450         	0.012       	0           	Open  	;
 WW5968_WW5956   	371          	369          	1596.739357 	450         	0.012       	0           	Open  	;
 WW5289_WW5185   	308          	302          	1640.47     	450         	0.012       	0           	Open  	;
 WW5851_WW5776   	351          	340          	2006.087164 	450         	0.012       	0           	Open  	;
 WW5866_WW5849   	352          	350          	2059.34073  	450         	0.012       	0           	Open  	;
 WW5911_WW5868   	360          	353          	2244.959478 	450         	0.012       	0           	Open  	;
 WW6375_WW6529   	374          	376          	2360.323074 	450         	0.012       	0           	Open  	;
 WW4766_WW4669   	290          	286          	2540.60484  	450         	0.012       	0           	Open  	;
 WW2548_WW2489   	181          	176          	2835.332098 	450         	0.012       	0           	Open  	;
 WW5816_WW5912   	345          	361          	3079.776299 	450         	0.012       	0           	Open  	;
 WW2582_WW2574   	186          	184          	3114.498839 	450         	0.012       	0           	Open  	;
 WW5921_WW5820   	362          	347          	3458.379361 	450         	0.012       	0           	Open  	;
 WW5814_WW5925   	344          	364          	3743.601719 	450         	0.012       	0           	Open  	;
 NP4             	372           	156          	5554.4      	450         	0.012       	0           	Open  	;
 NP7             	346          	347          	230.68      	450         	0.012       	0           	Open  	;
 NP8             	347          	353          	4649.18     	450         	0.012       	0           	Open  	;
 NP29            	370          	373          	2451.74     	450         	0.012       	0           	Open  	;
 NP30            	364          	362          	1627.3      	450         	0.012       	0           	Open  	;
 NP31            	344          	346          	1493.52     	450         	0.012       	0           	Open  	;
 NP32            	362          	360          	4074.48     	450         	0.012       	0           	Open  	;
 NP33            	353          	349          	2091.85     	450         	0.012       	0           	Open  	;
 NP38            	334          	349          	2716.37     	450         	0.012       	0           	Open  	;
 NP39            	334          	339          	6660.65     	450         	0.012       	0           	Open  	;
 NP40            	366          	364          	5567.54     	450         	0.012       	0           	Open  	;
 NP41            	342          	339          	7977.58     	450         	0.012       	0           	Open  	;
 NP42            	342          	367          	5180.63     	450         	0.012       	0           	Open  	;