[TITLE]


[JUNCTIONS]
;ID              	Elev        	Demand      	Pattern         
J-2	315.0739	0.794272		;
J-3	314.8725	0.397136		;
J-4	314.1212	0.034		;
J-5	315.104	0.138		;
J-6	314.1956	0.19		;
J-7	313.3952	0.122		;
J-8	313.8176	0.397136		;
J-9	313.7581	0.168		;
J-10	312.6132	0.397136		;
J-11	310.411	0.51		;
J-12	309.7907	0.308		;
J-13	310.3405	0.138		;
J-14	310.8953	0.108		;
J-15	312.1161	0.278		;
J-16	312.3129	0.118		;
J-17	310.0038	0.328		;
J-18	306.8337	1.606		;
J-19	307.3116	0.166		;
J-20	308.007	0.238		;
J-21	310.5574	0.302		;
J-22	309.1263	0.38		;
J-23	310.2655	0.094		;
J-24	309.2258	0.634		;
J-25	308.9642	0.136		;
J-26	308.9238	0.068		;
J-27	311.5927	0.972		;
J-28	310.9097	0.974		;
J-29	309.9948	0.832		;
J-30	307.9026	0.442		;
J-31	308.6012	0.27		;
J-32	308.3402	3.264		;
J-33	308.1612	2.602		;
J-34	309.2758	0.23		;
J-35	309.7157	0.252		;
J-37	308.6421	0.524		;
J-36	307.8434	0.464		;
J-39	307.64	0.042		;
J-38	307.0455	1.084		;
J-41	308.0392	0.87		;
J-40	308	0.028		;
J-43	307	1.342		;
J-44	307.17	0.104		;
J-45	308.023	0.397136		;
J-46	308.1093	0.397136		;
J-47	306.8846	0.198		;
J-48	307.614	0.802		;
J-49	306.9403	0.57		;
J-50	307.4286	0.082		;
J-51	307.0832	0.712		;
J-52	306.9536	0.397136		;
J-53	308	0.29		;
J-54	306.2966	0.81		;
J-55	306.6984	0.006		;
J-56	306.7286	0.444		;
J-57	307.5482	0.397136		;
J-58	307.1302	0.664		;
J-59	307.8793	0.378		;
J-60	306.9695	0.12		;
J-61	306	0.99		;
J-62	304.4508	0.02		;
J-63	305.612	0.408		;
J-64	306.6389	0.208		;
J-65	304.073	0.538		;
J-66	304.786	0.866		;
J-67	306	0.436		;
J-68	303.5694	0.896		;
J-69	304.0239	0.334		;
J-70	304.8719	0.397136		;
J-71	304.9633	0.397136		;
J-72	305.3197	0.397136		;
J-73	305.7505	0.254		;
J-74	305.8502	2.168		;
J-75	305.5959	0.397136		;
J-76	305.2751	0.222		;
J-77	314.673	0.397136		;
J-78	314.4369	0.888		;
J-79	306.4684	3.712		;
J-80	305.7041	0.454		;
J-81	314.6194	0.397136		;
J-82	314.42	0.397136		;
J-83	312.8782	1.056		;
J-84	309.8383	1.428		;
J-85	309.864	0.672		;
J-86	309.4241	0.094		;
J-87	310.0056	2.488		;
J-88	309.5982	0.646		;
J-89	306.8794	2.954		;
J-90	306.2397	4.07		;
J-91	306.2957	2.092		;
J-92	305.3791	0.118		;
J-93	304.2568	5.184		;
J-94	305.4689	0.57		;
J-95	305.386	1.624		;
J-96	305.0478	7.918		;
J-97	306.3117	3.192		;
J-98	314.5696	0.397136		;
J-99	314.4197	0.397136		;
J-100	313.9784	0.397136		;
J-101	311.4608	2.574		;
J-102	310.8651	1.244		;
J-103	310.7799	0.536		;
J-104	309.7618	1.164		;
J-105	312.3913	0.64		;
J-106	306.3763	2.962		;
J-107	306.6015	0.538		;
J-108	308.0359	2.446		;
J-109	309.5041	0.154		;
J-110	310.1072	0.14		;
J-111	310.0348	0.397136		;
J-112	308.8554	0.1		;
J-113	309.0763	1.058		;
J-114	308.3813	0.326		;
J-115	304.4189	0.916		;
J-116	314.4864	0.397136		;
J-117	311.4587	0.397136		;
J-118	308.6701	0.397136		;
J-120	308.2773	0.642		;
J-121	304.7996	0.748		;
J-123	304.8245	0.3		;
J-124	305.2003	0.5		;
J-125	304.2232	0.238		;
J-126	304.3122	1.086		;
J-127	304.131	0.397136		;
J-128	305.2056	0.034		;
J-129	304.7711	0.397136		;
J-130	304.7838	1.48		;
J-131	304.0005	0.992		;
J-132	304.7909	0.397136		;
J-133	304.3932	0.406		;
J-134	304.834	0.397136		;
J-135	305.0527	0.397136		;
J-136	305.3207	0.448		;
J-137	305.1066	0.336		;
J-138	304.5993	0.406		;
J-139	304.1148	0.24		;
J-141	305.1599	0.374		;
J-142	305.4579	0.622		;
J-143	305.7058	0.238		;
J-144	306	0.534		;
J-145	306	1.768		;
J-146	305.5363	0.42		;
J-147	305.7563	0.11		;
J-148	306	0.322		;
J-149	305.7837	0.958		;
J-150	305.726	0.108		;
J-151	305.242	0.088		;
J-152	305.5641	0.074		;
J-153	306	0.69		;
J-154	306.0064	0.468		;
J-155	304.817	0.602		;
J-156	307.2802	0.397136		;
J-157	305.7425	0.01		;
J-158	304.7188	0.397136		;
J-159	304.0543	0.284		;
J-160	304	1.26		;
J-161	305.8563	0.86		;
J-162	305.3499	0.397136		;
J-163	304.4344	0.452		;
J-164	304.2065	0.18		;
J-165	304.3867	0.397136		;
J-166	303.8111	0.364		;
J-167	304.4182	0.028		;
J-168	303.872	0.348		;
J-169	304.5044	0.196		;
J-170	303.7716	0.43		;
J-171	304.4066	0.048		;
J-172	304.1008	0.397136		;
J-173	303.4372	0.434		;
J-174	303.384	0.346		;
J-175	303.0373	0.548		;
J-176	302.0424	0.438		;
J-177	302.0522	0.086		;
J-178	302.1032	0.052		;
J-179	301.2845	0.278		;
J-180	302.1272	0.397136		;
J-181	302.1932	0.07		;
J-182	301.6506	0.208		;
J-183	302.1597	0.504		;
J-184	302.2137	0.19		;
J-185	302.102	0.122		;
J-186	302.3784	0.26		;
J-187	302.2739	0.312		;
J-188	302.3643	0.104		;
J-189	302.4399	0.278		;
J-190	302.5257	0.034		;
J-191	302.5612	0.312		;
J-192	302.691	0.33		;
J-193	302.5896	0.208		;
J-194	302.5113	0.348		;
J-195	302.4281	0.244		;
J-196	308.1321	0.397136		;
J-197	308.3663	0.397136		;
J-198	308.3234	0.397136		;
J-199	308.6886	0.868		;
J-200	304.5923	0.944		;
J-201	304.3267	0.724		;
J-202	305.034	0.1		;
J-203	305.1693	2.156		;
J-204	304.8335	0.036		;
J-205	304.9714	0.31		;
J-206	305.2428	0.397136		;
J-207	305.3154	0.03		;
J-208	305.3375	0.04		;
J-209	308.0465	0.156		;
J-210	307.1051	0.514		;
J-211	305.905	0.278		;
J-212	306	0.058		;
J-213	306.2844	0.64		;
J-214	305.8881	0.6		;
J-215	305.5937	2.07		;
J-216	305.8299	0.642		;
J-217	308.1378	0.464		;
J-218	309	0.178		;
J-219	308.5223	0.93		;
J-220	308.9417	0.402		;
J-221	307.3365	0.46		;
J-222	307.2695	0.397136		;
J-223	305.6183	1.112		;
J-224	305.4941	1.288		;
J-225	304.0956	0.966		;
J-226	304	3.566		;
J-227	304.9662	0.348		;
J-228	303.1969	0.397136		;
J-229	304.7336	0.018		;
J-230	304.7463	0.397136		;
J-231	304.6203	1.152		;
J-232	304.1549	0.598		;
J-233	305.5688	0.558		;
J-234	305.9488	0.496		;
J-235	305.515	0.136		;
J-236	306.771	0.452		;
J-237	307.937	1.142		;
J-238	308	0.28		;
J-239	308.9545	0.152		;
J-240	307.6555	0.15		;
J-241	306.1714	2.742		;
J-242	306	0.397136		;
J-243	305.817	0.16		;
J-244	305.5774	0.604		;
J-245	305.2432	0.452		;
J-246	306.3125	0.79		;
J-247	306.1673	0.116		;
J-248	305.6062	0.052		;
J-249	303.2098	2.718		;
J-250	304.9776	0.138		;
J-251	304.7543	0.684		;
J-252	304.8253	0.08		;
J-253	304.1877	0.394		;
J-254	303.9891	0.29		;
J-255	303.8302	0.397136		;
J-256	303.6658	0.16		;
J-257	303.4529	0.94		;
J-258	303	0.396		;
J-259	303.9179	1.01		;
J-260	307.542	0.397136		;
J-261	308.3996	0.397136		;
J-262	308.4478	0.397136		;
J-263	308.4767	0.288		;
J-264	308.1279	0.102		;
J-265	307.9481	0.397136		;
J-266	307.5346	0.397136		;
J-267	306.132	1.086		;
J-268	306	0.397136		;
J-269	307.4901	0.128		;
J-270	305.8635	2.126		;
J-271	305.6656	1.136		;
J-272	307.2192	0.252		;
J-273	306.514	0.796		;
J-274	305.6831	0.397136		;
J-275	305.5875	0.336		;
J-276	306.4983	0.07		;
J-277	306.3295	0.86		;
J-278	305.6173	0.397136		;
J-279	306.7389	0.397136		;
J-280	304.4418	1.326		;
J-281	303.1464	1.376		;
J-282	304.0261	2.538		;
J-283	304.4112	0.04		;
J-284	303.9412	0.396		;
J-285	305.3237	0.194		;
J-286	305.4265	0.397136		;
J-287	304.6193	0.616		;
J-119	308.5421	0.397136		;
J-42	307.6499	0.838		;
J-140a	304.8102	0.397136		;
J-196a	308.3671	0.198		;
J-292	313.9826	0.397136		;
J-293	310.0362	0.706		;
J-294	304.4019	0.397136		;
785-A	310.0242	0		;
859-A	304	0		;
862-B	301.9316	0		;

[RESERVOIRS]
;ID              	Head        	Pattern         
 R-3                    327.2050       	                	;

[TANKS]
;ID              	Elevation   	InitLevel   	MinLevel    	MaxLevel    	Diameter    	MinVol      	VolCurve

[PIPES]
;ID              	Node1           	Node2           	Length      	Diameter    	Roughness   	MinorLoss   	Status
 P-4                             J-3                             J-4                                  56.6330     200.0000     130.0000       0.0000 
 P-5                             J-4                             J-5                                 107.3803     100.0000     130.0000       0.0000 
 P-6                             J-4                             J-6                                 129.2431     200.0000     130.0000       0.0000 
 P-7                             J-6                             J-7                                 142.1919      91.6000     130.0000       0.0000 
 P-8                             J-6                             J-8                                  13.9362     200.0000     130.0000       0.0000 
 P-9                             J-8                             J-9                                  45.0489     150.0000     130.0000       0.0000 
 P-10                            J-8                             J-10                                 37.1405     200.0000     130.0000       0.0000 
 P-11                            J-10                            J-11                                 71.6289     133.6000     130.0000       0.0000 
 P-12                            J-11                            J-12                                 52.4439     133.6000     130.0000       0.0000 
 P-13                            J-12                            J-13                                 41.8671      91.6000     130.0000       0.0000 
 P-14                            J-13                            J-14                                 32.7945      91.6000     130.0000       0.0000 
 P-15                            J-14                            J-15                                 40.0083      91.6000     130.0000       0.0000 
 P-16                            J-15                            J-16                                 25.0296     133.6000     130.0000       0.0000 
 P-17                            J-16                            J-10                                 26.8311     133.6000     130.0000       0.0000 
 P-18                            J-16                            J-17                                 93.1571     100.0000     130.0000       0.0000 
 P-19                            J-12                            J-18                                208.3499     133.6000     130.0000       0.0000 
 P-20                            J-18                            J-19                                 39.8378     133.6000     130.0000       0.0000 
 P-21                            J-19                            J-20                                 56.8490      91.6000     130.0000       0.0000 
 P-22                            J-20                            J-13                                148.0511      91.6000     130.0000       0.0000 
 P-23                            J-14                            J-21                                 66.3562      91.6000     130.0000       0.0000 
 P-24                            J-21                            J-22                                 79.2607      80.0000     130.0000       0.0000 
 P-25                            J-21                            J-23                                 49.4181      91.6000     130.0000       0.0000 
 P-26                            J-23                            J-24                                 47.3651      80.0000     130.0000       0.0000 
 P-27                            J-24                            J-20                                 80.8301      80.0000     130.0000       0.0000 
 P-28                            J-24                            J-25                                 56.2211      80.0000     130.0000       0.0000 
 P-29                            J-25                            J-26                                 25.6195      91.6000     130.0000       0.0000 
 P-30                            J-8                             J-27                                256.3747     150.0000     130.0000       0.0000 
 P-31                            J-27                            J-28                                 40.6130     133.6000     130.0000       0.0000 
 P-32                            J-28                            J-29                                 41.1952     133.6000     130.0000       0.0000 
 P-33                            J-29                            J-30                                105.7308     133.6000     130.0000       0.0000 
 P-34                            J-30                            J-19                                 79.4712     133.6000     130.0000       0.0000 
 P-35                            J-15                            J-28                                209.6543     133.6000     130.0000       0.0000 
 P-36                            J-23                            J-29                                 92.8769      91.6000     130.0000       0.0000 
 P-38                            J-31                            J-32                                 43.9629     133.6000     130.0000       0.0000 
 P-39                            J-32                            J-33                                 59.2236      91.6000     130.0000       0.0000 
 P-40                            J-33                            J-34                                111.5123      91.6000     130.0000       0.0000 
 P-41                            J-34                            J-35                                 58.8192      91.6000     130.0000       0.0000 
 P-44                            J-34                            J-37                                 32.8383      91.6000     130.0000       0.0000 
 P-45                            J-37                            J-36                                 96.9862      91.6000     130.0000       0.0000 
 P-46                            J-36                            J-39                                 29.6932      91.6000     130.0000       0.0000 
 P-42                            J-35                            J-36                                 96.1501      80.0000     130.0000       0.0000 
 P-49                            J-33                            J-38                                201.2413      91.6000     130.0000       0.0000 
 P-48                            J-39                            J-38                                 52.5405      91.6000     130.0000       0.0000 
 P-51                            J-32                            J-41                                 38.1511     100.0000     130.0000       0.0000 
 P-52                            J-41                            J-40                                 34.2226     100.0000     130.0000       0.0000 
 P-55                            J-43                            J-44                                 33.8909      91.6000     130.0000       0.0000 
 P-59                            J-45                            J-46                                 28.6065     150.0000     130.0000       0.0000 
 P-60                            J-45                            J-47                                160.6980     100.0000     130.0000       0.0000 
 P-61                            J-47                            J-48                                109.3216     100.0000     130.0000       0.0000 
 P-62                            J-48                            J-49                                 84.0405     100.0000     130.0000       0.0000 
 P-63                            J-49                            J-47                                 41.5998     100.0000     130.0000       0.0000 
 P-64                            J-48                            J-50                                 39.2600     100.0000     130.0000       0.0000 
 P-65                            J-50                            J-51                                 61.0648     100.0000     130.0000       0.0000 
 P-66                            J-51                            J-52                                 36.6816     100.0000     130.0000       0.0000 
 P-67                            J-52                            J-49                                 38.9363     100.0000     130.0000       0.0000 
 P-68                            J-45                            J-53                                105.8866     150.0000     130.0000       0.0000 
 P-69                            J-53                            J-50                                 69.0391     100.0000     130.0000       0.0000 
 P-70                            J-52                            J-54                                151.4926     100.0000     130.0000       0.0000 
 P-71                            J-54                            J-55                                 45.5353     100.0000     130.0000       0.0000 
 P-72                            J-55                            J-56                                 45.5448     100.0000     130.0000       0.0000 
 P-73                            J-56                            J-51                                 91.4574     100.0000     130.0000       0.0000 
 P-74                            J-56                            J-57                                137.3529     100.0000     130.0000       0.0000 
 P-75                            J-57                            J-58                                 46.9609     100.0000     130.0000       0.0000 
 P-76                            J-58                            J-55                                 49.4878     100.0000     130.0000       0.0000 
 P-77                            J-53                            J-59                                124.1603     150.0000     130.0000       0.0000 
 P-81                            J-60                            J-61                                110.7627     100.0000     130.0000       0.0000 
 P-83                            J-61                            J-62                                 41.1444     100.0000     130.0000       0.0000 
 P-84                            J-62                            J-63                                 34.3769     100.0000     130.0000       0.0000 
 P-85                            J-63                            J-64                                 79.9683     100.0000     130.0000       0.0000 
 P-86                            J-64                            J-60                                 38.4550     150.0000     130.0000       0.0000 
 P-87                            J-62                            J-65                                 93.8650     100.0000     130.0000       0.0000 
 P-88                            J-65                            J-66                                 33.5094     150.0000     130.0000       0.0000 
 P-89                            J-66                            J-63                                 93.9760     100.0000     130.0000       0.0000 
 P-90                            J-66                            J-67                                 78.7315     150.0000     130.0000       0.0000 
 P-91                            J-67                            J-64                                 98.5241     150.0000     130.0000       0.0000 
 P-92                            J-65                            J-68                                 44.9894     100.0000     130.0000       0.0000 
 P-93                            J-68                            J-69                                 49.3021     150.0000     130.0000       0.0000 
 P-94                            J-69                            J-70                                 60.7239     150.0000     130.0000       0.0000 
 P-95                            J-69                            J-71                                113.8425     100.0000     130.0000       0.0000 
 P-97                            J-72                            J-67                                 46.8524     150.0000     130.0000       0.0000 
 P-98                            J-72                            J-68                                113.7759     100.0000     130.0000       0.0000 
 P-99                            J-72                            J-73                                 75.9352     100.0000     130.0000       0.0000 
 P-100                           J-59                            J-74                                270.7461     150.0000     130.0000       0.0000 
 P-101                           J-74                            J-75                                 31.5109     150.0000     130.0000       0.0000 
 P-102                           J-75                            J-76                                 29.3080     150.0000     130.0000       0.0000 
 P-103                           J-74                            J-71                                 83.3115     150.0000     130.0000       0.0000 
 P-104                           J-2                             J-77                                 13.4057     450.0000     130.0000       0.0000 
 P-108                           J-79                            J-80                                121.4458     150.0000     130.0000       0.0000 
 P-110                           J-77                            J-81                                  1.6385     450.0000     130.0000       0.0000 
 P-112                           J-82                            J-83                                116.6992     200.0000     130.0000       0.0000 
 P-113                           J-83                            J-84                                237.5112      91.6000     130.0000       0.0000 
 P-114                           J-84                            J-85                                105.5500     150.0000     130.0000       0.0000 
 P-115                           J-84                            J-86                                 83.0671     200.0000     130.0000       0.0000 
 P-116                           J-86                            J-87                                 81.2207     200.0000     130.0000       0.0000 
 P-117                           J-87                            J-88                                 63.0031     200.0000     130.0000       0.0000 
 P-118                           J-87                            J-83                                161.7324     200.0000     130.0000       0.0000 
 P-120                           J-89                            J-90                                 72.6541      91.6000     130.0000       0.0000 
 P-121                           J-90                            J-79                                109.6623     150.0000     130.0000       0.0000 
 P-123                           J-91                            J-92                                 70.9736     200.0000     130.0000       0.0000 
 P-124                           J-92                            J-93                                105.1717     100.0000     130.0000       0.0000 
 P-125                           J-93                            J-80                                283.0943     150.0000     130.0000       0.0000 
 P-126                           J-92                            J-90                                144.8251     100.0000     130.0000       0.0000 
 P-127                           J-91                            J-89                                124.1893      91.6000     130.0000       0.0000 
 P-129                           J-94                            J-95                                127.3179     100.0000     130.0000       0.0000 
 P-130                           J-94                            J-96                                121.4829      91.6000     130.0000       0.0000 
 P-134                           J-97                            J-94                                 71.8891      91.6000     130.0000       0.0000 
 P-135                           J-97                            J-91                                123.2718     150.0000     130.0000       0.0000 
 P-136                           J-81                            J-98                                  1.7118     450.0000     130.0000       0.0000 
 P-138                           J-99                            J-100                                26.4179     150.0000     130.0000       0.0000 
 P-139                           J-100                           J-101                               253.1267     150.0000     130.0000       0.0000 
 P-140                           J-101                           J-102                               104.5891     150.0000     130.0000       0.0000 
 P-141                           J-102                           J-103                                74.7305      91.6000     130.0000       0.0000 
 P-142                           J-102                           J-104                               106.7979      91.6000     130.0000       0.0000 
 P-143                           J-104                           J-105                               118.7073     150.0000     130.0000       0.0000 
 P-144                           J-105                           J-100                               132.5900     150.0000     130.0000       0.0000 
 P-145                           J-104                           J-106                               200.9984     150.0000     130.0000       0.0000 
 P-146                           J-106                           J-107                                36.3874     133.6000     130.0000       0.0000 
 P-147                           J-107                           J-108                                83.3278     150.0000     130.0000       0.0000 
 P-148                           J-108                           J-102                               183.4699      91.6000     130.0000       0.0000 
 P-149                           J-102                           J-109                                89.4185     100.0000     130.0000       0.0000 
 P-150                           J-109                           J-110                                46.4212     150.0000     130.0000       0.0000 
 P-152                           J-109                           J-112                                77.6901     100.0000     130.0000       0.0000 
 P-153                           J-112                           J-108                                96.2923     150.0000     130.0000       0.0000 
 P-154                           J-112                           J-113                               135.2621     133.6000     130.0000       0.0000 
 P-155                           J-112                           J-114                                56.9569      91.6000     130.0000       0.0000 
 P-157                           J-98                            J-116                                 2.8043     450.0000     130.0000       0.0000 
 P-160                           J-117                           J-111                                76.2744     300.0000     130.0000       0.0000 
 P-161                           J-111                           J-118                               111.5785     300.0000     130.0000       0.0000 
 P-164                           J-120                           J-115                               315.5852     225.0000     130.0000       0.0000 
 P-168                           J-123                           J-124                                51.2577     150.0000     130.0000       0.0000 
 P-170                           J-125                           J-126                               221.0290      91.6000     130.0000       0.0000 
 P-171                           J-126                           J-127                                47.9283      91.6000     130.0000       0.0000 
 P-173                           J-128                           J-129                                41.5289      91.6000     130.0000       0.0000 
 P-174                           J-129                           J-130                               179.5792      91.6000     130.0000       0.0000 
 P-175                           J-130                           J-126                                40.2397      91.6000     130.0000       0.0000 
 P-177                           J-131                           J-132                               171.4787      80.0000     130.0000       0.0000 
 P-179                           J-131                           J-133                                34.1593      91.6000     130.0000       0.0000 
 P-180                           J-133                           J-134                               107.6656      80.0000     130.0000       0.0000 
 P-181                           J-134                           J-132                                43.9035     150.0000     130.0000       0.0000 
 P-182                           J-133                           J-135                                95.3011      91.6000     130.0000       0.0000 
 P-183                           J-135                           J-134                                43.1132     150.0000     130.0000       0.0000 
 P-184                           J-128                           J-136                               143.7713     150.0000     130.0000       0.0000 
 P-186                           J-137                           J-138                                40.4324     150.0000     130.0000       0.0000 
 P-187                           J-138                           J-139                                26.9105     150.0000     130.0000       0.0000 
 P-190                           J-141                           J-142                                47.6904     150.0000     130.0000       0.0000 
 P-191                           J-142                           J-143                                39.6738     150.0000     130.0000       0.0000 
 P-192                           J-143                           J-144                               144.7558     150.0000     130.0000       0.0000 
 P-193                           J-144                           J-145                                40.2831     150.0000     130.0000       0.0000 