[TITLE]
small network provided by Robert Sitzenfrei (robert.sitzenfrei@uibk.ac.at)
cite as: Sitzenfrei et al (2022) Dual graph characteristics of water distribution networks - how optimal are design solutions? doi: xxx
available diameters (mm): [3 4 6 8 10 12 14 16 18 20 22]*25.4      
costs (€/m): [8 11 16 23 32 50 60 90 110 130 150]

[JUNCTIONS]
;ID              	Elev        	Demand      	Pattern         
 0               	402.69      	0.08172	                	;
 1               	402.69      	0	                	;
 3               	402.69      	0.04086	                	;
 4               	402.69      	0.04086	                	;
 5               	403.91      	0.36774	                	;
 6               	405.43      	0	                	;
 7               	408.11      	0	                	;
 10              	402.69      	0	                	;
 11              	402.69      	0	                	;
 12              	402.69      	0	                	;
 13              	402.69      	0	                	;
 14              	405.69      	2.28816	                	;
 15              	406.69      	0	                	;
 16              	402.69      	0	                	;
 17              	402.69      	0	                	;
 18              	402.69      	0.28602	                	;
 19              	403.16      	0	                	;
 20              	403.33      	0	                	;
 21              	404.57      	0	                	;
 22              	406.02      	0	                	;
 23              	406.42      	0	                	;
 24              	402.69      	0.32688	                	;
 25              	403.44      	0	                	;
 26              	403.35      	0	                	;
 27              	403.43      	0	                	;
 28              	405.69      	1.26666	                	;
 29              	402.69      	0	                	;
 30              	402.69      	0	                	;
 31              	411.09      	0.12258	                	;
 32              	411.09      	0	                	;
 33              	407.69      	0.04086	                	;
 34              	407.69      	0.08172	                	;
 35              	408.69      	0.12258	                	;
 36              	410.56      	0.12258	                	;
 38              	409.92      	0.04086	                	;
 39              	404.69      	0.08172	                	;
 40              	405.84      	0.04086	                	;
 41              	406.09      	0	                	;
 42              	403.9       	0.04086	                	;
 43              	403.69      	0.04086	                	;
 44              	403.48      	0.08172	                	;
 45              	403.48      	0.08172	                	;
 46              	404.3       	0.04086	                	;
 47              	404.33      	0	                	;
 48              	405.69      	0.04086	                	;
 49              	406.69      	0.12258	                	;
 50              	407.69      	0.08172	                	;
 51              	410.14      	0.04086	                	;
 52              	410.59      	0.04086	                	;
 53              	411.77      	0.12258	                	;
 54              	410.28      	0	                	;
 55              	407.28      	0.53118	                	;
 56              	408.55      	0.04086	                	;
 57              	409.69      	0.04086	                	;
 58              	409.31      	0.04086	                	;
 59              	403.84      	0.04086	                	;
 60              	404.69      	0.12258	                	;
 61              	405.69      	0.08172	                	;
 62              	405.69      	0.04086	                	;
 63              	403.03      	0.16344	                	;
 65              	403.69      	0.04086	                	;
 66              	403.69      	0.08172	                	;
 67              	403.69      	0.24516	                	;
 68              	405.61      	0.04086	                	;
 69              	407.9       	0.04086	                	;
 70              	405.36      	0.08172	                	;
 71              	405.69      	0.04086	                	;
 72              	407.22      	0.49032	                	;
 73              	407.69      	0.08172	                	;
 74              	407.84      	0.04086	                	;
 75              	408.68      	0.04086	                	;
 76              	407.35      	0	                	;
 77              	406.85      	0.24516	                	;
 78              	410.46      	0	                	;
 79              	409.57      	0.24516	                	;
 80              	411.69      	0.16344	                	;
 81              	408.69      	0.04086	                	;
 82              	413.92      	0.2043	                	;
 83              	413.98      	0.08172	                	;
 84              	412.69      	0	                	;
 85              	414.04      	0.08172	                	;
 86              	414.64      	0.08172	                	;
 87              	414.77      	0.04086	                	;
 88              	415.69      	0	                	;
 89              	415.56      	0.08172	                	;
 90              	416.24      	0.08172	                	;
 91              	417.64      	2.8602	                	;
 92              	418.69      	0.04086	                	;
 93              	418.69      	0.2043	                	;
 94              	415.69      	0.16344	                	;
 95              	415.69      	0	                	;
 96              	413.94      	0.12258	                	;
 97              	412.69      	0.08172	                	;
 98              	411.69      	0.16344	                	;
 99              	411.85      	0.04086	                	;
 100             	412.42      	0.08172	                	;
 101             	414.15      	0.12258	                	;
 102             	413.99      	0	                	;
 103             	414.1       	0.24516	                	;
 104             	416.14      	0.04086	                	;
 105             	415.06      	0.16344	                	;
 106             	416.02      	0	                	;
 107             	416.69      	0.16344	                	;
 108             	417.69      	0	                	;
 109             	417.69      	0	                	;
 110             	418.95      	0.08172	                	;
 111             	421.28      	0.08172	                	;
 112             	421.69      	0	                	;
 113             	423.69      	0.04086	                	;
 114             	425.51      	0	                	;
 115             	426.08      	0	                	;
 116             	426.47      	0.04086	                	;
 117             	426.8       	0.32688	                	;
 118             	420.62      	0.04086	                	;
 119             	420.59      	0.04086	                	;
 120             	421.63      	0.08172	                	;
 122             	422.17      	0.08172	                	;
 123             	422.35      	0	                	;
 124             	422.25      	0	                	;
 125             	422.09      	1.38924	                	;
 126             	422.33      	0.04086	                	;
 127             	425.45      	0.28602	                	;
 128             	433.73      	0.44946	                	;
 129             	434.26      	0.04086	                	;
 130             	434.47      	0.08172	                	;
 131             	438.69      	0.16344	                	;
 132             	426.49      	0.28602	                	;
 133             	417.69      	0.04086	                	;
 134             	417.69      	0.6129	                	;
 135             	417.21      	0.12258	                	;
 136             	419.37      	0.04086	                	;
 137             	426.69      	0.08172	                	;
 138             	426.69      	0.12258	                	;
 139             	429.47      	0	                	;
 140             	429.48      	0.04086	                	;
 141             	420.87      	0.12258	                	;
 142             	420.69      	0	                	;
 143             	432.61      	0	                	;
 144             	432.54      	0.24516	                	;
 145             	439.34      	0.08172	                	;
 146             	440.69      	0.12258	                	;
 147             	442.69      	0	                	;
 148             	442.69      	0	                	;
 149             	442.69      	0.04086	                	;
 150             	445.69      	0	                	;
 151             	445.69      	0	                	;
 152             	445.74      	0.04086	                	;
 154             	442.86      	0.08172	                	;
 155             	437.13      	0.16344	                	;
 156             	439.32      	0.08172	                	;
 157             	444.69      	0	                	;
 158             	444.86      	0	                	;
 161             	446.4       	0	                	;
 162             	443.36      	0	                	;
 163             	443.41      	0.2043	                	;
 164             	439.69      	0.08172	                	;
 165             	440.38      	0.16344	                	;
 166             	457.01      	0.12258	                	;
 169             	447.51      	0	                	;
 170             	443.5       	0	                	;
 171             	444.69      	0	                	;
 172             	454.86      	0	                	;
 175             	453.52      	0.32688	                	;
 196             	427.32      	0.04086	                	;
 197             	427.05      	0.08172	                	;
 198             	428.69      	0.12258	                	;
 199             	427.3       	0	                	;
 200             	440.69      	0.08172	                	;
 201             	429.46      	0.04086	                	;
 202             	443.48      	0	                	;
 204             	445.69      	0	                	;
 205             	446.51      	0	                	;
 206             	446.44      	0.44946	                	;
 210             	405.24      	0.08172	                	;
 211             	402.69      	0	                	;
 213             	402.8       	0	                	;
 214             	403.06      	0.85806	                	;
 217             	402.69      	0	                	;
 218             	405.15      	0	                	;
 219             	408.27      	0	                	;
 220             	404.69      	0	                	;
 221             	402.69      	0	                	;
 222             	402.69      	0	                	;
 223             	405.69      	0	                	;
 224             	402.69      	0	                	;
 225             	402.69      	0	                	;
 226             	404.69      	0	                	;
 227             	403.6       	0	                	;
 228             	403.69      	0	                	;
 229             	402.69      	0	                	;
 230             	411.03      	0	                	;
 231             	407.69      	0	                	;
 232             	405.91      	0	                	;
 233             	403.66      	0	                	;
 234             	403.81      	0	                	;
 235             	407.69      	0	                	;
 236             	410.28      	0	                	;
 237             	408.49      	0	                	;
 238             	404.69      	0	                	;
 239             	405.68      	0	                	;
 240             	403.1       	0	                	;
 241             	403.69      	0	                	;
 242             	403.69      	0	                	;
 243             	405.17      	0	                	;
 244             	408.44      	0	                	;
 245             	407.69      	0	                	;
 246             	408.69      	0	                	;
 247             	414.12      	0	                	;
 248             	416.31      	0	                	;
 249             	418.79      	0	                	;
 250             	418.69      	0	                	;
 251             	412.69      	0	                	;
 252             	412.06      	0	                	;
 253             	413.88      	0	                	;
 255             	416.69      	0	                	;
 256             	417.69      	0	                	;
 257             	421.69      	0	                	;
 258             	423.69      	0	                	;
 259             	425.69      	0	                	;
 260             	426.69      	0	                	;
 261             	425.69      	0	                	;
 262             	438.3       	0	                	;
 263             	433.78      	0	                	;
 264             	417.8       	0	                	;
 265             	417.91      	0	                	;
 266             	416.97      	0	                	;
 267             	419.26      	0	                	;
 268             	419.69      	0	                	;
 269             	426.69      	0	                	;
 270             	429.52      	0	                	;
 271             	420.67      	0	                	;
 272             	432.69      	0	                	;
 273             	442.69      	0	                	;
 274             	439.53      	0	                	;
 275             	444.69      	0	                	;
 276             	439.97      	0	                	;
 278             	447.39      	0	                	;
 279             	444.69      	0	                	;
 280             	454.82      	0	                	;
 291             	427.06      	0	                	;
 295             	402.55      	0	                	;

[RESERVOIRS]
;ID              	Head        	Pattern         
 2               	495.19      	                	;

[TANKS]
;ID              	Elevation   	InitLevel   	MinLevel    	MaxLevel    	Diameter    	MinVol      	VolCurve

[PIPES]
;ID              	Node1           	Node2           	Length      	Diameter    	Roughness   	MinorLoss   	Status
 0               	0               	1               	16.71       	80          	0.4         	0           	Open  	;
 543             	1               	217             	4.1777      	80          	0.4         	0           	Open  	;
 2               	1               	295             	393.7171    	100         	0.4         	0           	Open  	;
 308             	3               	4               	41.3325     	80          	0.4         	0           	Open  	;
 309             	3               	10              	137.4499    	80          	0.4         	0           	Open  	;
 4               	295             	3               	140.69      	80          	0.4         	0           	Open  	;
 6               	4               	5               	83.33       	80          	0.4         	0           	Open  	;
 544             	4               	221             	3.9176      	80          	0.4         	0           	Open  	;
 321             	5               	6               	34.4509     	50          	0.4         	0           	Open  	;
 545             	5               	220             	131.9803    	80          	0.4         	0           	Open  	;
 320             	6               	7               	109.1515    	100         	0.4         	0           	Open  	;
 547             	6               	210             	19.1138     	80          	0.4         	0           	Open  	;
 548             	6               	218             	4.4238      	80          	0.4         	0           	Open  	;
 325             	7               	15              	282.8168    	100         	0.4         	0           	Open  	;
 549             	7               	219             	5.7884      	80          	0.4         	0           	Open  	;
 311             	10              	11              	117.0503    	80          	0.4         	0           	Open  	;
 557             	10              	222             	3.9462      	80          	0.4         	0           	Open  	;
 312             	11              	12              	34.5341     	100         	0.4         	0           	Open  	;
 313             	11              	16              	58.041      	150         	0.4         	0           	Open  	;
 318             	12              	13              	2.9604      	100         	0.4         	0           	Open  	;
 554             	12              	213             	7.7412      	80          	0.4         	0           	Open  	;
 20              	13              	14              	148.58      	100         	0.4         	0           	Open  	;
 556             	13              	211             	5.9953      	75          	0.4         	0           	Open  	;
 326             	14              	15              	55.6465     	100         	0.4         	0           	Open  	;
 550             	14              	223             	3.2788      	80          	0.4         	0           	Open  	;
 324             	23              	15              	143.7638    	100         	0.4         	0           	Open  	;
 317             	16              	17              	8.1772      	80          	0.4         	0           	Open  	;
 25              	16              	19              	145.61      	150         	0.4         	0           	Open  	;
 558             	17              	18              	6.4255      	80          	0.4         	0           	Open  	;
 35              	17              	24              	31.18       	80          	0.4         	0           	Open  	;
 560             	18              	224             	5.337       	80          	0.4         	0           	Open  	;
 34              	18              	225             	3.35        	80          	0.4         	0           	Open  	;
 315             	19              	20              	3.8775      	80          	0.4         	0           	Open  	;
 316             	19              	25              	2.6226      	150         	0.4         	0           	Open  	;
 27              	20              	21              	74.07       	80          	0.4         	0           	Open  	;
 40              	20              	26              	16.72       	80          	0.4         	0           	Open  	;
 333             	21              	22              	103.5297    	80          	0.4         	0           	Open  	;
 564             	21              	226             	5.3597      	80          	0.4         	0           	Open  	;
 328             	22              	23              	74.4662     	100         	0.4         	0           	Open  	;
 365             	22              	33              	65.8817     	100         	0.4         	0           	Open  	;
 332             	39              	22              	166.8963    	100         	0.4         	0           	Open  	;
 410             	23              	31              	222.5938    	100         	0.4         	0           	Open  	;
 37              	25              	29              	108.49      	100         	0.4         	0           	Open  	;
 39              	25              	227             	4.11        	150         	0.4         	0           	Open  	;
 562             	26              	27              	2.758       	80          	0.4         	0           	Open  	;
 314             	26              	28              	46.4497     	80          	0.4         	0           	Open  	;
 42              	27              	30              	11.75       	80          	0.4         	0           	Open  	;
 561             	27              	228             	4.0562      	80          	0.4         	0           	Open  	;
 563             	29              	229             	4.4323      	80          	0.4         	0           	Open  	;
 404             	31              	32              	75.8497     	100         	0.4         	0           	Open  	;
 48              	31              	230             	4.25        	80          	0.4         	0           	Open  	;
 405             	36              	32              	64.5278     	100         	0.4         	0           	Open  	;
 401             	32              	98              	23.4818     	100         	0.4         	0           	Open  	;
 364             	33              	34              	4.3993      	100         	0.4         	0           	Open  	;
 55              	33              	231             	5.38        	80          	0.4         	0           	Open  	;
 368             	34              	35              	76.367      	100         	0.4         	0           	Open  	;
 361             	34              	41              	148.128     	80          	0.4         	0           	Open  	;
 366             	35              	36              	45.9735     	100         	0.4         	0           	Open  	;
 373             	35              	56              	107.0814    	100         	0.4         	0           	Open  	;
 408             	36              	38              	61.5012     	80          	0.4         	0           	Open  	;
 335             	40              	39              	62.6765     	80          	0.4         	0           	Open  	;
 336             	42              	39              	110.4361    	100         	0.4         	0           	Open  	;
 360             	41              	40              	5.3796      	80          	0.4         	0           	Open  	;
 61              	40              	232             	4.91        	80          	0.4         	0           	Open  	;
 371             	41              	55              	53.9629     	80          	0.4         	0           	Open  	;
 342             	42              	43              	23.9005     	150         	0.4         	0           	Open  	;
 339             	46              	42              	19.5165     	150         	0.4         	0           	Open  	;
 348             	42              	59              	67.1711     	100         	0.4         	0           	Open  	;
 345             	43              	44              	82.5072     	150         	0.4         	0           	Open  	;
 344             	43              	63              	68.0122     	150         	0.4         	0           	Open  	;
 71              	44              	45              	44.93       	150         	0.4         	0           	Open  	;
 566             	44              	233             	4.1997      	80          	0.4         	0           	Open  	;
 565             	45              	234             	5.9506      	80          	0.4         	0           	Open  	;
 576             	46              	47              	4.4109      	80          	0.4         	0           	Open  	;
 354             	48              	46              	64.6314     	150         	0.4         	0           	Open  	;
 353             	49              	48              	68.3167     	150         	0.4         	0           	Open  	;
 355             	62              	48              	11.8224     	100         	0.4         	0           	Open  	;
 357             	50              	49              	41.7166     	150         	0.4         	0           	Open  	;
 358             	55              	49              	86.6535     	80          	0.4         	0           	Open  	;
 376             	51              	50              	126.783     	150         	0.4         	0           	Open  	;
 377             	69              	50              	51.6847     	80          	0.4         	0           	Open  	;
 74              	50              	235             	5.38        	80          	0.4         	0           	Open  	;
 382             	54              	51              	5.2452      	150         	0.4         	0           	Open  	;
 383             	57              	51              	46.9525     	80          	0.4         	0           	Open  	;
 384             	53              	52              	67.7017     	150         	0.4         	0           	Open  	;
 63              	52              	54              	11.58       	150         	0.4         	0           	Open  	;
 385             	84              	53              	31.3946     	150         	0.4         	0           	Open  	;
 402             	98              	53              	64.9714     	80          	0.4         	0           	Open  	;
 75              	54              	236             	2.81        	80          	0.4         	0           	Open  	;
 375             	55              	56              	46.8162     	80          	0.4         	0           	Open  	;
 380             	56              	57              	58.5191     	80          	0.4         	0           	Open  	;
 83              	56              	237             	3.87        	80          	0.4         	0           	Open  	;
 82              	57              	58              	21.17       	80          	0.4         	0           	Open  	;
 346             	59              	60              	49.689      	100         	0.4         	0           	Open  	;
 347             	59              	65              	19.6582     	100         	0.4         	0           	Open  	;
 350             	60              	61              	38.1328     	100         	0.4         	0           	Open  	;
 578             	60              	238             	4.9472      	80          	0.4         	0           	Open  	;
 88              	61              	62              	48          	100         	0.4         	0           	Open  	;
 351             	61              	68              	20.5408     	100         	0.4         	0           	Open  	;
 577             	62              	239             	2.8711      	80          	0.4         	0           	Open  	;
 567             	63              	240             	2.2834      	80          	0.4         	0           	Open  	;
 349             	65              	66              	39.7872     	100         	0.4         	0           	Open  	;
 568             	65              	241             	5.2024      	80          	0.4         	0           	Open  	;
 570             	66              	67              	10.248      	100         	0.4         	0           	Open  	;
 574             	66              	214             	75.0983     	100         	0.4         	0           	Open  	;
 569             	67              	242             	3.1928      	80          	0.4         	0           	Open  	;
 379             	68              	69              	147.3815    	100         	0.4         	0           	Open  	;
 423             	68              	70              	68.0908     	125         	0.4         	0           	Open  	;
 417             	75              	69              	66.5621     	80          	0.4         	0           	Open  	;
 421             	70              	71              	19.725      	100         	0.4         	0           	Open  	;
 422             	70              	76              	123.7253    	100         	0.4         	0           	Open  	;
 579             	70              	243             	6.1243      	80          	0.4         	0           	Open  	;
 420             	71              	72              	95.6182     	100         	0.4         	0           	Open  	;
 419             	72              	73              	58.7129     	80          	0.4         	0           	Open  	;
 105             	72              	74              	39.98       	100         	0.4         	0           	Open  	;
 416             	74              	75              	30.9504     	100         	0.4         	0           	Open  	;
 418             	74              	244             	43.9371     	100         	0.4         	0           	Open  	;
 415             	79              	75              	37.047      	80          	0.4         	0           	Open  	;
 414             	75              	81              	2.9002      	100         	0.4         	0           	Open  	;
 581             	76              	77              	40.6761     	80          	0.4         	0           	Open  	;
 426             	76              	78              	121.7599    	100         	0.4         	0           	Open  	;
 580             	76              	245             	4.7067      	80          	0.4         	0           	Open  	;
 428             	78              	79              	39.8107     	80          	0.4         	0           	Open  	;
 432             	78              	87              	216.6503    	150         	0.4         	0           	Open  	;
 427             	79              	80              	95.1701     	80          	0.4         	0           	Open  	;
 119             	81              	82              	216.4       	100         	0.4         	0           	Open  	;
 582             	81              	246             	2.8324      	100         	0.4         	0           	Open  	;
 413             	82              	83              	2.5251      	100         	0.4         	0           	Open  	;
 583             	82              	247             	7.0947      	80          	0.4         	0           	Open  	;
 411             	83              	85              	46.2576     	80          	0.4         	0           	Open  	;
 412             	87              	83              	67.6563     	80          	0.4         	0           	Open  	;
 387             	85              	84              	60.1862     	80          	0.4         	0           	Open  	;
 388             	97              	84              	16.2184     	150         	0.4         	0           	Open  	;
 123             	85              	86              	15.49       	80          	0.4         	0           	Open  	;
 430             	87              	88              	61.9152     	150         	0.4         	0           	Open  	;
 433             	88              	89              	74.0304     	80          	0.4         	0           	Open  	;
 129             	88              	90              	11.96       	150         	0.4         	0           	Open  	;
 436             	90              	91              	113.8912    	150         	0.4         	0           	Open  	;